Circuit: * C:\Users\ymaksime\OneDrive - Fortive\Documents\DEV\OtherProjects\KiCad\closetLights\hardware\simulations\constant_current_driver.asc

Direct Newton iteration for .op point succeeded.

Date: Thu Oct 27 11:45:25 2022
Total elapsed time: 0.151 seconds.

tnom = 27
temp = 27
method = modified trap
totiter = 2388
traniter = 2369
tranpoints = 1175
accept = 1136
rejected = 39
matrix size = 21
fillins = 30
solver = Normal
Matrix Compiler1: 3.24 KB object code size  0.5/0.3/[0.2]
Matrix Compiler2: 2.38 KB object code size  0.2/0.4/[0.2]

