Circuit: * C:\Users\ymaksime\OneDrive - Fortive\Documents\DEV\OtherProjects\KiCad\closetLights\hardware\simulations\constant_current_driver.asc

Warning: Multiple definitions of model "fmmt458" Type: BJT
Direct Newton iteration for .op point succeeded.

Date: Wed Sep 06 13:26:33 2023
Total elapsed time: 0.148 seconds.

tnom = 27
temp = 27
method = modified trap
totiter = 2388
traniter = 2369
tranpoints = 1175
accept = 1136
rejected = 39
matrix size = 21
fillins = 30
solver = Normal
Matrix Compiler1: 3.24 KB object code size  0.4/0.2/[0.1]
Matrix Compiler2: off  [0.2]/0.2/0.3

