Circuit: * C:\Users\ymaksime\OneDrive - Fortive\Documents\DEV\OtherProjects\KiCad\closetLights\hardware\simulations\constant_current_driver.asc

Direct Newton iteration for .op point succeeded.

Date: Fri Oct 07 11:01:42 2022
Total elapsed time: 0.081 seconds.

tnom = 27
temp = 27
method = modified trap
totiter = 3296
traniter = 3278
tranpoints = 1487
accept = 1369
rejected = 118
matrix size = 21
fillins = 30
solver = Normal
Matrix Compiler1: 3.24 KB object code size  0.5/0.3/[0.2]
Matrix Compiler2: 2.38 KB object code size  0.2/0.2/[0.2]

